Circuit: * D:\TrabInstrumentacao\CIRCUITOS\conversor-bidirecional.asc

Limiting rise time of source v3 to 0.001
Limiting fall time of source v3 to 0.001
Direct Newton iteration for .op point succeeded.

Date: Mon Apr 24 16:21:47 2023
Total elapsed time: 0.080 seconds.

tnom = 27
temp = 27
method = modified trap
totiter = 5064
traniter = 5058
tranpoints = 1868
accept = 1643
rejected = 225
matrix size = 11
fillins = 0
solver = Normal
Matrix Compiler1: 458 bytes object code size  0.2/0.1/[0.1]
Matrix Compiler2: 833 bytes object code size  0.1/0.1/[0.1]

