Circuit: * D:\TrabInstrumentacao\CIRCUITOS\Draft1.asc

Warning: Multiple definitions of model "2scr375p" Type: BJT
Warning: Multiple definitions of model "bc857b" Type: BJT
Warning: Multiple definitions of model "bc847c" Type: BJT
Warning: Multiple definitions of model "bc847b" Type: BJT
Limiting rise time of source v2 to 0.1
Limiting fall time of source v2 to 0.1
Direct Newton iteration for .op point succeeded.

Date: Sun Apr 16 14:17:21 2023
Total elapsed time: 0.050 seconds.

tnom = 27
temp = 27
method = modified trap
totiter = 2185
traniter = 2175
tranpoints = 1079
accept = 1072
rejected = 7
matrix size = 6
fillins = 0
solver = Normal
Matrix Compiler1: 146 bytes object code size  0.1/0.1/[0.1]
Matrix Compiler2: off  [0.0]/0.1/0.1

